ID FEMAP,FEMAP
SOL SESTATICS
TIME 10000
CEND
  ECHO = NONE
  DISPLACEMENT(PLOT) = ALL
  SPCFORCE(PLOT) = ALL
  OLOAD(PLOT) = ALL
  FORCE(PLOT,CORNER) = ALL
  STRESS(PLOT,CORNER) = ALL
BEGIN BULK
$ ***************************************************************************
$   Written by : FEMAP
$   Version    : 8.00
$   Translator : MSC.Nastran
$   From Model : 
$   Date       : Tue Jun 25 18:04:43 2002
$ ***************************************************************************
$
PARAM,POST,-1
PARAM,OGEOM,NO
PARAM,AUTOSPC,YES
PARAM,GRDPNT,0
CORD2C         1       0      0.      0.      0.      0.      0.      1.+FEMAPC1
+FEMAPC1      1.      0.      1.
CORD2S         2       0      0.      0.      0.      0.      0.      1.+FEMAPC2
+FEMAPC2      1.      0.      1.
$ FEMAP Property 1 : .1" aluminum plate
PSHELL         1       1     0.1       1               1              0.
$ FEMAP Material 1 : 2024-T351 Al Plate .25-.5
MAT1           1 1.07E+7            0.332.591E-41.255E-5     70.        +MT    1
+MT    1  42000.  40000.  38000.
MAT4           11.644E-3  83.0762.591E-4
GRID           1       0      2.     1.1      0.       0        
GRID           2       0 1.63636     1.1      0.       0        
GRID           3       0 1.27273     1.1      0.       0        
GRID           4       0 0.90909     1.1      0.       0        
GRID           5       0 0.54545     1.1      0.       0        
GRID           6       0 0.18182     1.1      0.       0        
GRID           7       0-0.18182     1.1      0.       0        
GRID           8       0-0.54545     1.1      0.       0        
GRID           9       0-0.90909     1.1      0.       0        
GRID          10       0-1.27273     1.1      0.       0        
GRID          11       0-1.63636     1.1      0.       0        
GRID          12       0     -2.     1.1      0.       0        
GRID          13       0     -2. 0.73333      0.       0        
GRID          14       0     -2. 0.36667      0.       0        
GRID          15       0     -2.      0.      0.       0        
GRID          16       0     -2.-0.36667      0.       0        
GRID          17       0     -2.-0.73333      0.       0        
GRID          18       0     -2.    -1.1      0.       0        
GRID          19       0-1.63636    -1.1      0.       0        
GRID          20       0-1.27273    -1.1      0.       0        
$ ... 107 like lines cut
CQUAD4         1       1      17      18      19      60                
CQUAD4         2       1      16      17      60      61                
CQUAD4         3       1      56      15      16      61                
CQUAD4         4       1      58      59      62      63                
CQUAD4         5       1      19      20      58      63                
CQUAD4         6       1      60      19      63      62                
CQUAD4         7       1      50      43      56      61                
CQUAD4         8       1      50      61      60      62                
CQUAD4         9       1      49      50      62      59                
CQUAD4        10       1      14      15      56      69                
CQUAD4        11       1      51      13      14      69                
CQUAD4        12       1      69      56      43      44                
CQUAD4        13       1      69      44      45      68                
CQUAD4        14       1      52      51      69      68                
CQUAD4        15       1      68      45      46      70                
CQUAD4        16       1      53      52      68      70                
CQUAD4        17       1      70      46      47      64                
CQUAD4        18       1      54      53      70      64                
CQUAD4        19       1      54      64      65      72                
CQUAD4        20       1      72      65      66      71                
$ ... 83 like lines cut
ENDDATA
