ID FEMAP,FEMAP
SOL SESTATICS
TIME 10000
CEND
  ECHO = NONE
  DISPLACEMENT(PLOT) = ALL
  SPCFORCE(PLOT) = ALL
  OLOAD(PLOT) = ALL
  FORCE(PLOT,CORNER) = ALL
  STRESS(PLOT,CORNER) = ALL
BEGIN BULK
$ ***************************************************************************
$   Written by : FEMAP
$   Version    : 8.00
$   Translator : MSC.Nastran
$   From Model : 
$   Date       : Tue Jun 25 18:05:34 2002
$ ***************************************************************************
$
PARAM,POST,-1
PARAM,OGEOM,NO
PARAM,AUTOSPC,YES
PARAM,GRDPNT,0
CORD2C         1       0      0.      0.      0.      0.      0.      1.+FEMAPC1
+FEMAPC1      1.      0.      1.
CORD2S         2       0      0.      0.      0.      0.      0.      1.+FEMAPC2
+FEMAPC2      1.      0.      1.
$ FEMAP Property 1 : .1" aluminum plate
PSHELL         1       1     0.1       1               1              0.
$ FEMAP Material 1 : 2024-T351 Al Plate .25-.5
MAT1           1 1.07E+7            0.332.591E-41.255E-5     70.        +MT    1
+MT    1  42000.  40000.  38000.
MAT4           11.644E-3  83.0762.591E-4
GRID         128       0      2.     1.1      0.       0        
GRID         129       0     1.8     1.1      0.       0        
GRID         130       0     1.6     1.1      0.       0        
GRID         131       0     1.4     1.1      0.       0        
GRID         132       0     1.2     1.1      0.       0        
GRID         133       0      1.     1.1      0.       0        
GRID         134       0     0.8     1.1      0.       0        
GRID         135       0     0.6     1.1      0.       0        
GRID         136       0     0.4     1.1      0.       0        
GRID         137       0     0.2     1.1      0.       0        
GRID         138       0      0.     1.1      0.       0        
GRID         139       0    -0.2     1.1      0.       0        
GRID         140       0    -0.4     1.1      0.       0        
GRID         141       0    -0.6     1.1      0.       0        
GRID         142       0    -0.8     1.1      0.       0        
GRID         143       0     -1.     1.1      0.       0        
GRID         144       0    -1.2     1.1      0.       0        
GRID         145       0    -1.4     1.1      0.       0        
GRID         146       0    -1.6     1.1      0.       0        
GRID         147       0    -1.8     1.1      0.       0        
$ ... 283 like lines cut
CQUAD4       104       1     235     236     237     238                
CQUAD4       105       1     152     225     235     238                
CQUAD4       106       1     151     152     238     237                
CQUAD4       107       1     216     150     151     237                
CQUAD4       108       1     217     216     237     236                
CQUAD4       109       1     226     206     207     239                
CQUAD4       110       1     235     225     226     239                
CQUAD4       111       1     239     207     208     234                
CQUAD4       112       1     236     235     239     234                
CQUAD4       113       1     218     217     236     234                
CQUAD4       114       1     240     241     242     243                
CQUAD4       115       1     211     230     240     243                
CQUAD4       116       1     210     211     243     242                
CQUAD4       117       1     234     208     209     244                
CQUAD4       118       1     219     218     234     244                
CQUAD4       119       1     244     209     210     242                
CQUAD4       120       1     220     219     244     242                
CQUAD4       121       1     221     220     242     241                
CQUAD4       122       1     240     230     231     245                
CQUAD4       123       1     241     240     245     246                
$ ... 240 like lines cut
ENDDATA
